%chk=claisen_gs.chk
%nprocshared=4
%mem=3GB
#p b3lyp/6-31g* freq=noraman

ground state structure

0 1
6  2.529357  0.361330 -0.000020
6  1.650985 -0.646172 -0.000002
8  0.294333 -0.586301  0.000029
6 -0.296838  0.704706  0.000021
6 -1.792958  0.591589 -0.000009
6 -2.486162 -0.545043 -0.000017
1  3.588621  0.131739 -0.000045
1  2.248176  1.407720 -0.000013
1  1.967584 -1.685756 -0.000009
1  0.043549  1.268971 -0.883806
1  0.043514  1.268967  0.883863
1 -2.309465  1.551442 -0.000020
1 -3.572272 -0.540878 -0.000037
1 -1.990668 -1.510251 -0.000004



