%chk=claisen_ts.chk
%nprocshared=4
%mem=3GB
#p b3lyp/6-31g* freq=noraman

transition structure

0 1
6 -1.466310  0.784166 -0.289984
6 -1.291056 -0.472057  0.261839
8 -0.511025 -1.358456 -0.252221
6  1.285571 -0.900283  0.182034
6  1.374702  0.412705 -0.301796
6  0.668677  1.425296  0.322236
1 -2.145898  1.492395  0.178794
1 -1.225401  0.953688 -1.332994
1 -1.676662 -0.646153  1.281812
1  1.766397 -1.711903 -0.353320
1  1.173541 -1.069494  1.248816
1  1.692496  0.557036 -1.332675
1  0.629024  2.424946 -0.101698
1  0.445203  1.368176  1.383056



